L6/1726532/_ATERRAMENTO.dss
! Aterramento do neutro (no 4) dos secundarios de BT
! Reactor de 0.5 ohm entre o no 4 e a terra (no 0).
New Reactor.NEUTRO_node_1015110198 phases=1 bus1=node_1015110198.4 bus2=node_1015110198.0 R=0.5 X=0
New Reactor.NEUTRO_node_1015573946 phases=1 bus1=node_1015573946.4 bus2=node_1015573946.0 R=0.5 X=0
New Reactor.NEUTRO_node_1021448161 phases=1 bus1=node_1021448161.4 bus2=node_1021448161.0 R=0.5 X=0
New Reactor.NEUTRO_node_1024067509 phases=1 bus1=node_1024067509.4 bus2=node_1024067509.0 R=0.5 X=0
New Reactor.NEUTRO_node_1033093503 phases=1 bus1=node_1033093503.4 bus2=node_1033093503.0 R=0.5 X=0
New Reactor.NEUTRO_node_1034566363 phases=1 bus1=node_1034566363.4 bus2=node_1034566363.0 R=0.5 X=0
New Reactor.NEUTRO_node_1035317799 phases=1 bus1=node_1035317799.4 bus2=node_1035317799.0 R=0.5 X=0
New Reactor.NEUTRO_node_1040586521 phases=1 bus1=node_1040586521.4 bus2=node_1040586521.0 R=0.5 X=0
New Reactor.NEUTRO_node_1043484980 phases=1 bus1=node_1043484980.4 bus2=node_1043484980.0 R=0.5 X=0
New Reactor.NEUTRO_node_1044777440 phases=1 bus1=node_1044777440.4 bus2=node_1044777440.0 R=0.5 X=0
New Reactor.NEUTRO_node_1047379708 phases=1 bus1=node_1047379708.4 bus2=node_1047379708.0 R=0.5 X=0
New Reactor.NEUTRO_node_1049771416 phases=1 bus1=node_1049771416.4 bus2=node_1049771416.0 R=0.5 X=0
New Reactor.NEUTRO_node_1073242692 phases=1 bus1=node_1073242692.4 bus2=node_1073242692.0 R=0.5 X=0
New Reactor.NEUTRO_node_1081044639 phases=1 bus1=node_1081044639.4 bus2=node_1081044639.0 R=0.5 X=0
New Reactor.NEUTRO_node_1081551256 phases=1 bus1=node_1081551256.4 bus2=node_1081551256.0 R=0.5 X=0
New Reactor.NEUTRO_node_1091723801 phases=1 bus1=node_1091723801.4 bus2=node_1091723801.0 R=0.5 X=0
New Reactor.NEUTRO_node_1092260508 phases=1 bus1=node_1092260508.4 bus2=node_1092260508.0 R=0.5 X=0
New Reactor.NEUTRO_node_1099676241 phases=1 bus1=node_1099676241.4 bus2=node_1099676241.0 R=0.5 X=0
New Reactor.NEUTRO_node_1108423145 phases=1 bus1=node_1108423145.4 bus2=node_1108423145.0 R=0.5 X=0
New Reactor.NEUTRO_node_1119896736 phases=1 bus1=node_1119896736.4 bus2=node_1119896736.0 R=0.5 X=0
New Reactor.NEUTRO_node_1131516290 phases=1 bus1=node_1131516290.4 bus2=node_1131516290.0 R=0.5 X=0
New Reactor.NEUTRO_node_1149031535 phases=1 bus1=node_1149031535.4 bus2=node_1149031535.0 R=0.5 X=0
New Reactor.NEUTRO_node_1165628007 phases=1 bus1=node_1165628007.4 bus2=node_1165628007.0 R=0.5 X=0
New Reactor.NEUTRO_node_1171489188 phases=1 bus1=node_1171489188.4 bus2=node_1171489188.0 R=0.5 X=0
New Reactor.NEUTRO_node_1171725400 phases=1 bus1=node_1171725400.4 bus2=node_1171725400.0 R=0.5 X=0
New Reactor.NEUTRO_node_1173073663 phases=1 bus1=node_1173073663.4 bus2=node_1173073663.0 R=0.5 X=0
New Reactor.NEUTRO_node_1173842466 phases=1 bus1=node_1173842466.4 bus2=node_1173842466.0 R=0.5 X=0
New Reactor.NEUTRO_node_1176083687 phases=1 bus1=node_1176083687.4 bus2=node_1176083687.0 R=0.5 X=0
New Reactor.NEUTRO_node_1185831394 phases=1 bus1=node_1185831394.4 bus2=node_1185831394.0 R=0.5 X=0
New Reactor.NEUTRO_node_1195745955 phases=1 bus1=node_1195745955.4 bus2=node_1195745955.0 R=0.5 X=0
New Reactor.NEUTRO_node_1199314215 phases=1 bus1=node_1199314215.4 bus2=node_1199314215.0 R=0.5 X=0
New Reactor.NEUTRO_node_1200027008 phases=1 bus1=node_1200027008.4 bus2=node_1200027008.0 R=0.5 X=0
New Reactor.NEUTRO_node_1207301283 phases=1 bus1=node_1207301283.4 bus2=node_1207301283.0 R=0.5 X=0
New Reactor.NEUTRO_node_1209306384 phases=1 bus1=node_1209306384.4 bus2=node_1209306384.0 R=0.5 X=0
New Reactor.NEUTRO_node_1213776398 phases=1 bus1=node_1213776398.4 bus2=node_1213776398.0 R=0.5 X=0
New Reactor.NEUTRO_node_1213853875 phases=1 bus1=node_1213853875.4 bus2=node_1213853875.0 R=0.5 X=0
New Reactor.NEUTRO_node_1214047852 phases=1 bus1=node_1214047852.4 bus2=node_1214047852.0 R=0.5 X=0
New Reactor.NEUTRO_node_1217624329 phases=1 bus1=node_1217624329.4 bus2=node_1217624329.0 R=0.5 X=0
New Reactor.NEUTRO_node_1218534473 phases=1 bus1=node_1218534473.4 bus2=node_1218534473.0 R=0.5 X=0
New Reactor.NEUTRO_node_1220136216 phases=1 bus1=node_1220136216.4 bus2=node_1220136216.0 R=0.5 X=0
New Reactor.NEUTRO_node_1220136712 phases=1 bus1=node_1220136712.4 bus2=node_1220136712.0 R=0.5 X=0
New Reactor.NEUTRO_node_1221011806 phases=1 bus1=node_1221011806.4 bus2=node_1221011806.0 R=0.5 X=0
New Reactor.NEUTRO_node_1221239653 phases=1 bus1=node_1221239653.4 bus2=node_1221239653.0 R=0.5 X=0
New Reactor.NEUTRO_node_1223991953 phases=1 bus1=node_1223991953.4 bus2=node_1223991953.0 R=0.5 X=0
New Reactor.NEUTRO_node_1224043514 phases=1 bus1=node_1224043514.4 bus2=node_1224043514.0 R=0.5 X=0
New Reactor.NEUTRO_node_1224043713 phases=1 bus1=node_1224043713.4 bus2=node_1224043713.0 R=0.5 X=0
New Reactor.NEUTRO_node_1226079061 phases=1 bus1=node_1226079061.4 bus2=node_1226079061.0 R=0.5 X=0
New Reactor.NEUTRO_node_1230145574 phases=1 bus1=node_1230145574.4 bus2=node_1230145574.0 R=0.5 X=0
New Reactor.NEUTRO_node_1231952966 phases=1 bus1=node_1231952966.4 bus2=node_1231952966.0 R=0.5 X=0
New Reactor.NEUTRO_node_1233632026 phases=1 bus1=node_1233632026.4 bus2=node_1233632026.0 R=0.5 X=0
New Reactor.NEUTRO_node_1235358991 phases=1 bus1=node_1235358991.4 bus2=node_1235358991.0 R=0.5 X=0
New Reactor.NEUTRO_node_1235444054 phases=1 bus1=node_1235444054.4 bus2=node_1235444054.0 R=0.5 X=0
New Reactor.NEUTRO_node_1236830880 phases=1 bus1=node_1236830880.4 bus2=node_1236830880.0 R=0.5 X=0
New Reactor.NEUTRO_node_1243328561 phases=1 bus1=node_1243328561.4 bus2=node_1243328561.0 R=0.5 X=0
New Reactor.NEUTRO_node_1243328839 phases=1 bus1=node_1243328839.4 bus2=node_1243328839.0 R=0.5 X=0
New Reactor.NEUTRO_node_1243328940 phases=1 bus1=node_1243328940.4 bus2=node_1243328940.0 R=0.5 X=0
New Reactor.NEUTRO_node_1243329253 phases=1 bus1=node_1243329253.4 bus2=node_1243329253.0 R=0.5 X=0
New Reactor.NEUTRO_node_1245414826 phases=1 bus1=node_1245414826.4 bus2=node_1245414826.0 R=0.5 X=0
New Reactor.NEUTRO_node_1246647015 phases=1 bus1=node_1246647015.4 bus2=node_1246647015.0 R=0.5 X=0
New Reactor.NEUTRO_node_1256312762 phases=1 bus1=node_1256312762.4 bus2=node_1256312762.0 R=0.5 X=0
New Reactor.NEUTRO_node_1259623515 phases=1 bus1=node_1259623515.4 bus2=node_1259623515.0 R=0.5 X=0
New Reactor.NEUTRO_node_1259945589 phases=1 bus1=node_1259945589.4 bus2=node_1259945589.0 R=0.5 X=0
New Reactor.NEUTRO_node_1262139813 phases=1 bus1=node_1262139813.4 bus2=node_1262139813.0 R=0.5 X=0
New Reactor.NEUTRO_node_1262169820 phases=1 bus1=node_1262169820.4 bus2=node_1262169820.0 R=0.5 X=0
New Reactor.NEUTRO_node_1262388815 phases=1 bus1=node_1262388815.4 bus2=node_1262388815.0 R=0.5 X=0
New Reactor.NEUTRO_node_1265794341 phases=1 bus1=node_1265794341.4 bus2=node_1265794341.0 R=0.5 X=0
New Reactor.NEUTRO_node_1265875537 phases=1 bus1=node_1265875537.4 bus2=node_1265875537.0 R=0.5 X=0
New Reactor.NEUTRO_node_1265875569 phases=1 bus1=node_1265875569.4 bus2=node_1265875569.0 R=0.5 X=0
New Reactor.NEUTRO_node_1267563601 phases=1 bus1=node_1267563601.4 bus2=node_1267563601.0 R=0.5 X=0
New Reactor.NEUTRO_node_1269650005 phases=1 bus1=node_1269650005.4 bus2=node_1269650005.0 R=0.5 X=0
New Reactor.NEUTRO_node_1282798603 phases=1 bus1=node_1282798603.4 bus2=node_1282798603.0 R=0.5 X=0
New Reactor.NEUTRO_node_1282798664 phases=1 bus1=node_1282798664.4 bus2=node_1282798664.0 R=0.5 X=0
New Reactor.NEUTRO_node_1283271168 phases=1 bus1=node_1283271168.4 bus2=node_1283271168.0 R=0.5 X=0
New Reactor.NEUTRO_node_1283271473 phases=1 bus1=node_1283271473.4 bus2=node_1283271473.0 R=0.5 X=0
New Reactor.NEUTRO_node_1283271600 phases=1 bus1=node_1283271600.4 bus2=node_1283271600.0 R=0.5 X=0
New Reactor.NEUTRO_node_1291545072 phases=1 bus1=node_1291545072.4 bus2=node_1291545072.0 R=0.5 X=0
New Reactor.NEUTRO_node_1303439935 phases=1 bus1=node_1303439935.4 bus2=node_1303439935.0 R=0.5 X=0
New Reactor.NEUTRO_node_1303440064 phases=1 bus1=node_1303440064.4 bus2=node_1303440064.0 R=0.5 X=0
New Reactor.NEUTRO_node_1307222774 phases=1 bus1=node_1307222774.4 bus2=node_1307222774.0 R=0.5 X=0
New Reactor.NEUTRO_node_1309400030 phases=1 bus1=node_1309400030.4 bus2=node_1309400030.0 R=0.5 X=0
New Reactor.NEUTRO_node_1309400119 phases=1 bus1=node_1309400119.4 bus2=node_1309400119.0 R=0.5 X=0
New Reactor.NEUTRO_node_1312041226 phases=1 bus1=node_1312041226.4 bus2=node_1312041226.0 R=0.5 X=0
New Reactor.NEUTRO_node_1316501855 phases=1 bus1=node_1316501855.4 bus2=node_1316501855.0 R=0.5 X=0
New Reactor.NEUTRO_node_1318820646 phases=1 bus1=node_1318820646.4 bus2=node_1318820646.0 R=0.5 X=0
New Reactor.NEUTRO_node_1321504831 phases=1 bus1=node_1321504831.4 bus2=node_1321504831.0 R=0.5 X=0
New Reactor.NEUTRO_node_1326382524 phases=1 bus1=node_1326382524.4 bus2=node_1326382524.0 R=0.5 X=0
New Reactor.NEUTRO_node_1328615177 phases=1 bus1=node_1328615177.4 bus2=node_1328615177.0 R=0.5 X=0
New Reactor.NEUTRO_node_1355242566 phases=1 bus1=node_1355242566.4 bus2=node_1355242566.0 R=0.5 X=0
New Reactor.NEUTRO_node_1356023815 phases=1 bus1=node_1356023815.4 bus2=node_1356023815.0 R=0.5 X=0
New Reactor.NEUTRO_node_1357239553 phases=1 bus1=node_1357239553.4 bus2=node_1357239553.0 R=0.5 X=0
New Reactor.NEUTRO_node_1357604347 phases=1 bus1=node_1357604347.4 bus2=node_1357604347.0 R=0.5 X=0
New Reactor.NEUTRO_node_1379056805 phases=1 bus1=node_1379056805.4 bus2=node_1379056805.0 R=0.5 X=0
New Reactor.NEUTRO_node_1381014965 phases=1 bus1=node_1381014965.4 bus2=node_1381014965.0 R=0.5 X=0
New Reactor.NEUTRO_node_1386352377 phases=1 bus1=node_1386352377.4 bus2=node_1386352377.0 R=0.5 X=0
New Reactor.NEUTRO_node_1387507737 phases=1 bus1=node_1387507737.4 bus2=node_1387507737.0 R=0.5 X=0
New Reactor.NEUTRO_node_1387641030 phases=1 bus1=node_1387641030.4 bus2=node_1387641030.0 R=0.5 X=0
New Reactor.NEUTRO_node_1388426450 phases=1 bus1=node_1388426450.4 bus2=node_1388426450.0 R=0.5 X=0
New Reactor.NEUTRO_node_1393768390 phases=1 bus1=node_1393768390.4 bus2=node_1393768390.0 R=0.5 X=0
New Reactor.NEUTRO_node_1394433652 phases=1 bus1=node_1394433652.4 bus2=node_1394433652.0 R=0.5 X=0
New Reactor.NEUTRO_node_1406474180 phases=1 bus1=node_1406474180.4 bus2=node_1406474180.0 R=0.5 X=0
New Reactor.NEUTRO_node_1407736450 phases=1 bus1=node_1407736450.4 bus2=node_1407736450.0 R=0.5 X=0
New Reactor.NEUTRO_node_1408402011 phases=1 bus1=node_1408402011.4 bus2=node_1408402011.0 R=0.5 X=0
New Reactor.NEUTRO_node_1409544342 phases=1 bus1=node_1409544342.4 bus2=node_1409544342.0 R=0.5 X=0
New Reactor.NEUTRO_node_1422417871 phases=1 bus1=node_1422417871.4 bus2=node_1422417871.0 R=0.5 X=0
New Reactor.NEUTRO_node_1424422891 phases=1 bus1=node_1424422891.4 bus2=node_1424422891.0 R=0.5 X=0
New Reactor.NEUTRO_node_1438863641 phases=1 bus1=node_1438863641.4 bus2=node_1438863641.0 R=0.5 X=0
New Reactor.NEUTRO_node_1440242004 phases=1 bus1=node_1440242004.4 bus2=node_1440242004.0 R=0.5 X=0
New Reactor.NEUTRO_node_1444716396 phases=1 bus1=node_1444716396.4 bus2=node_1444716396.0 R=0.5 X=0
New Reactor.NEUTRO_node_1450754010 phases=1 bus1=node_1450754010.4 bus2=node_1450754010.0 R=0.5 X=0
New Reactor.NEUTRO_node_1484165327 phases=1 bus1=node_1484165327.4 bus2=node_1484165327.0 R=0.5 X=0
New Reactor.NEUTRO_node_1517521158 phases=1 bus1=node_1517521158.4 bus2=node_1517521158.0 R=0.5 X=0
New Reactor.NEUTRO_node_1517877531 phases=1 bus1=node_1517877531.4 bus2=node_1517877531.0 R=0.5 X=0
New Reactor.NEUTRO_node_1550031034 phases=1 bus1=node_1550031034.4 bus2=node_1550031034.0 R=0.5 X=0
New Reactor.NEUTRO_node_1556201607 phases=1 bus1=node_1556201607.4 bus2=node_1556201607.0 R=0.5 X=0
New Reactor.NEUTRO_node_1582811350 phases=1 bus1=node_1582811350.4 bus2=node_1582811350.0 R=0.5 X=0
New Reactor.NEUTRO_node_1596672520 phases=1 bus1=node_1596672520.4 bus2=node_1596672520.0 R=0.5 X=0
New Reactor.NEUTRO_node_1601138202 phases=1 bus1=node_1601138202.4 bus2=node_1601138202.0 R=0.5 X=0
New Reactor.NEUTRO_node_1602138653 phases=1 bus1=node_1602138653.4 bus2=node_1602138653.0 R=0.5 X=0
New Reactor.NEUTRO_node_1602288930 phases=1 bus1=node_1602288930.4 bus2=node_1602288930.0 R=0.5 X=0
New Reactor.NEUTRO_node_1602301929 phases=1 bus1=node_1602301929.4 bus2=node_1602301929.0 R=0.5 X=0
New Reactor.NEUTRO_node_1615553308 phases=1 bus1=node_1615553308.4 bus2=node_1615553308.0 R=0.5 X=0
New Reactor.NEUTRO_node_1616013622 phases=1 bus1=node_1616013622.4 bus2=node_1616013622.0 R=0.5 X=0
New Reactor.NEUTRO_node_1627439126 phases=1 bus1=node_1627439126.4 bus2=node_1627439126.0 R=0.5 X=0
New Reactor.NEUTRO_node_1628393058 phases=1 bus1=node_1628393058.4 bus2=node_1628393058.0 R=0.5 X=0
New Reactor.NEUTRO_node_1635606255 phases=1 bus1=node_1635606255.4 bus2=node_1635606255.0 R=0.5 X=0
New Reactor.NEUTRO_node_1643816253 phases=1 bus1=node_1643816253.4 bus2=node_1643816253.0 R=0.5 X=0
New Reactor.NEUTRO_node_1644533395 phases=1 bus1=node_1644533395.4 bus2=node_1644533395.0 R=0.5 X=0
New Reactor.NEUTRO_node_1653555319 phases=1 bus1=node_1653555319.4 bus2=node_1653555319.0 R=0.5 X=0
New Reactor.NEUTRO_node_1656887290 phases=1 bus1=node_1656887290.4 bus2=node_1656887290.0 R=0.5 X=0
New Reactor.NEUTRO_node_1665260461 phases=1 bus1=node_1665260461.4 bus2=node_1665260461.0 R=0.5 X=0
New Reactor.NEUTRO_node_1666171046 phases=1 bus1=node_1666171046.4 bus2=node_1666171046.0 R=0.5 X=0
New Reactor.NEUTRO_node_1670585110 phases=1 bus1=node_1670585110.4 bus2=node_1670585110.0 R=0.5 X=0
New Reactor.NEUTRO_node_1671512806 phases=1 bus1=node_1671512806.4 bus2=node_1671512806.0 R=0.5 X=0
New Reactor.NEUTRO_node_1686365516 phases=1 bus1=node_1686365516.4 bus2=node_1686365516.0 R=0.5 X=0
New Reactor.NEUTRO_node_1713688411 phases=1 bus1=node_1713688411.4 bus2=node_1713688411.0 R=0.5 X=0
New Reactor.NEUTRO_node_1727712453 phases=1 bus1=node_1727712453.4 bus2=node_1727712453.0 R=0.5 X=0
New Reactor.NEUTRO_node_1729752023 phases=1 bus1=node_1729752023.4 bus2=node_1729752023.0 R=0.5 X=0
New Reactor.NEUTRO_node_1734832090 phases=1 bus1=node_1734832090.4 bus2=node_1734832090.0 R=0.5 X=0
New Reactor.NEUTRO_node_1735105752 phases=1 bus1=node_1735105752.4 bus2=node_1735105752.0 R=0.5 X=0
New Reactor.NEUTRO_node_1735548955 phases=1 bus1=node_1735548955.4 bus2=node_1735548955.0 R=0.5 X=0
New Reactor.NEUTRO_node_1736983184 phases=1 bus1=node_1736983184.4 bus2=node_1736983184.0 R=0.5 X=0
New Reactor.NEUTRO_node_1738425969 phases=1 bus1=node_1738425969.4 bus2=node_1738425969.0 R=0.5 X=0
New Reactor.NEUTRO_node_1740564964 phases=1 bus1=node_1740564964.4 bus2=node_1740564964.0 R=0.5 X=0
New Reactor.NEUTRO_node_1741401760 phases=1 bus1=node_1741401760.4 bus2=node_1741401760.0 R=0.5 X=0
New Reactor.NEUTRO_node_1741848312 phases=1 bus1=node_1741848312.4 bus2=node_1741848312.0 R=0.5 X=0
New Reactor.NEUTRO_node_1768689088 phases=1 bus1=node_1768689088.4 bus2=node_1768689088.0 R=0.5 X=0
New Reactor.NEUTRO_node_1785827545 phases=1 bus1=node_1785827545.4 bus2=node_1785827545.0 R=0.5 X=0
New Reactor.NEUTRO_node_1786681903 phases=1 bus1=node_1786681903.4 bus2=node_1786681903.0 R=0.5 X=0
New Reactor.NEUTRO_node_1823442836 phases=1 bus1=node_1823442836.4 bus2=node_1823442836.0 R=0.5 X=0
New Reactor.NEUTRO_node_1840043500 phases=1 bus1=node_1840043500.4 bus2=node_1840043500.0 R=0.5 X=0
New Reactor.NEUTRO_node_1843409915 phases=1 bus1=node_1843409915.4 bus2=node_1843409915.0 R=0.5 X=0
New Reactor.NEUTRO_node_1855948717 phases=1 bus1=node_1855948717.4 bus2=node_1855948717.0 R=0.5 X=0
New Reactor.NEUTRO_node_1857503529 phases=1 bus1=node_1857503529.4 bus2=node_1857503529.0 R=0.5 X=0
New Reactor.NEUTRO_node_1861075428 phases=1 bus1=node_1861075428.4 bus2=node_1861075428.0 R=0.5 X=0
New Reactor.NEUTRO_node_1861509303 phases=1 bus1=node_1861509303.4 bus2=node_1861509303.0 R=0.5 X=0
New Reactor.NEUTRO_node_1861509438 phases=1 bus1=node_1861509438.4 bus2=node_1861509438.0 R=0.5 X=0
New Reactor.NEUTRO_node_1866803816 phases=1 bus1=node_1866803816.4 bus2=node_1866803816.0 R=0.5 X=0
New Reactor.NEUTRO_node_1868229272 phases=1 bus1=node_1868229272.4 bus2=node_1868229272.0 R=0.5 X=0
New Reactor.NEUTRO_node_1873274963 phases=1 bus1=node_1873274963.4 bus2=node_1873274963.0 R=0.5 X=0
New Reactor.NEUTRO_node_1876160340 phases=1 bus1=node_1876160340.4 bus2=node_1876160340.0 R=0.5 X=0
New Reactor.NEUTRO_node_1891236484 phases=1 bus1=node_1891236484.4 bus2=node_1891236484.0 R=0.5 X=0
New Reactor.NEUTRO_node_1897944265 phases=1 bus1=node_1897944265.4 bus2=node_1897944265.0 R=0.5 X=0
New Reactor.NEUTRO_node_1905153538 phases=1 bus1=node_1905153538.4 bus2=node_1905153538.0 R=0.5 X=0
New Reactor.NEUTRO_node_1905337995 phases=1 bus1=node_1905337995.4 bus2=node_1905337995.0 R=0.5 X=0
New Reactor.NEUTRO_node_1905913434 phases=1 bus1=node_1905913434.4 bus2=node_1905913434.0 R=0.5 X=0
New Reactor.NEUTRO_node_1907665344 phases=1 bus1=node_1907665344.4 bus2=node_1907665344.0 R=0.5 X=0
New Reactor.NEUTRO_node_1908650146 phases=1 bus1=node_1908650146.4 bus2=node_1908650146.0 R=0.5 X=0
New Reactor.NEUTRO_node_1908650215 phases=1 bus1=node_1908650215.4 bus2=node_1908650215.0 R=0.5 X=0
New Reactor.NEUTRO_node_1908650269 phases=1 bus1=node_1908650269.4 bus2=node_1908650269.0 R=0.5 X=0
New Reactor.NEUTRO_node_1908650335 phases=1 bus1=node_1908650335.4 bus2=node_1908650335.0 R=0.5 X=0
New Reactor.NEUTRO_node_1908650469 phases=1 bus1=node_1908650469.4 bus2=node_1908650469.0 R=0.5 X=0
New Reactor.NEUTRO_node_1908650487 phases=1 bus1=node_1908650487.4 bus2=node_1908650487.0 R=0.5 X=0
New Reactor.NEUTRO_node_1908650493 phases=1 bus1=node_1908650493.4 bus2=node_1908650493.0 R=0.5 X=0
New Reactor.NEUTRO_node_1908650691 phases=1 bus1=node_1908650691.4 bus2=node_1908650691.0 R=0.5 X=0
New Reactor.NEUTRO_node_1908650709 phases=1 bus1=node_1908650709.4 bus2=node_1908650709.0 R=0.5 X=0
New Reactor.NEUTRO_node_1908650841 phases=1 bus1=node_1908650841.4 bus2=node_1908650841.0 R=0.5 X=0
New Reactor.NEUTRO_node_1908650874 phases=1 bus1=node_1908650874.4 bus2=node_1908650874.0 R=0.5 X=0
New Reactor.NEUTRO_node_1908650889 phases=1 bus1=node_1908650889.4 bus2=node_1908650889.0 R=0.5 X=0
New Reactor.NEUTRO_node_1908651395 phases=1 bus1=node_1908651395.4 bus2=node_1908651395.0 R=0.5 X=0
New Reactor.NEUTRO_node_1916987685 phases=1 bus1=node_1916987685.4 bus2=node_1916987685.0 R=0.5 X=0
New Reactor.NEUTRO_node_1920822183 phases=1 bus1=node_1920822183.4 bus2=node_1920822183.0 R=0.5 X=0
New Reactor.NEUTRO_node_1931862174 phases=1 bus1=node_1931862174.4 bus2=node_1931862174.0 R=0.5 X=0
New Reactor.NEUTRO_node_1941029719 phases=1 bus1=node_1941029719.4 bus2=node_1941029719.0 R=0.5 X=0
New Reactor.NEUTRO_node_1947372106 phases=1 bus1=node_1947372106.4 bus2=node_1947372106.0 R=0.5 X=0
New Reactor.NEUTRO_node_1959786091 phases=1 bus1=node_1959786091.4 bus2=node_1959786091.0 R=0.5 X=0
New Reactor.NEUTRO_node_1965106310 phases=1 bus1=node_1965106310.4 bus2=node_1965106310.0 R=0.5 X=0
New Reactor.NEUTRO_node_1971001903 phases=1 bus1=node_1971001903.4 bus2=node_1971001903.0 R=0.5 X=0
New Reactor.NEUTRO_node_1971242365 phases=1 bus1=node_1971242365.4 bus2=node_1971242365.0 R=0.5 X=0
New Reactor.NEUTRO_node_1979448439 phases=1 bus1=node_1979448439.4 bus2=node_1979448439.0 R=0.5 X=0
New Reactor.NEUTRO_node_1989702229 phases=1 bus1=node_1989702229.4 bus2=node_1989702229.0 R=0.5 X=0
New Reactor.NEUTRO_node_1992939952 phases=1 bus1=node_1992939952.4 bus2=node_1992939952.0 R=0.5 X=0
New Reactor.NEUTRO_node_2042870618 phases=1 bus1=node_2042870618.4 bus2=node_2042870618.0 R=0.5 X=0
New Reactor.NEUTRO_node_2042870632 phases=1 bus1=node_2042870632.4 bus2=node_2042870632.0 R=0.5 X=0
New Reactor.NEUTRO_node_2043176185 phases=1 bus1=node_2043176185.4 bus2=node_2043176185.0 R=0.5 X=0
New Reactor.NEUTRO_node_2043755190 phases=1 bus1=node_2043755190.4 bus2=node_2043755190.0 R=0.5 X=0
New Reactor.NEUTRO_node_2046443211 phases=1 bus1=node_2046443211.4 bus2=node_2046443211.0 R=0.5 X=0
New Reactor.NEUTRO_node_2049032457 phases=1 bus1=node_2049032457.4 bus2=node_2049032457.0 R=0.5 X=0
New Reactor.NEUTRO_node_2052939965 phases=1 bus1=node_2052939965.4 bus2=node_2052939965.0 R=0.5 X=0
New Reactor.NEUTRO_node_2054507264 phases=1 bus1=node_2054507264.4 bus2=node_2054507264.0 R=0.5 X=0
New Reactor.NEUTRO_node_2060896827 phases=1 bus1=node_2060896827.4 bus2=node_2060896827.0 R=0.5 X=0
...
